(SAIFILE
  (SAIFVERSION "2.0")
  (DIRECTION "backward")
  (DESIGN )
  (PROGRAM_NAME "trace2power")
  (DIVIDER / )
  (TIMESCALE 1ns)
  (DURATION 5)
  (INSTANCE glitch_tb
    (NET
      (out (T0 1) (T1 4) (TX 0) (TZ 0) (TC 2) (IG 0))
      (a (T0 0) (T1 0) (TX 0) (TZ 0) (TC 0) (IG 0))
      (b (T0 0) (T1 0) (TX 0) (TZ 0) (TC 0) (IG 0))
      (c (T0 0) (T1 0) (TX 0) (TZ 0) (TC 0) (IG 0))
      (clk (T0 0) (T1 0) (TX 0) (TZ 0) (TC 0) (IG 0))
      (i[0] (T0 0) (T1 0) (TX 0) (TZ 0) (TC 0) (IG 0))
      (i[1] (T0 0) (T1 0) (TX 0) (TZ 0) (TC 0) (IG 0))
      (i[2] (T0 0) (T1 0) (TX 0) (TZ 0) (TC 0) (IG 0))
      (i[3] (T0 0) (T1 0) (TX 0) (TZ 0) (TC 0) (IG 0))
    )
    (INSTANCE glitch0
      (NET
        (a (T0 0) (T1 0) (TX 0) (TZ 0) (TC 0) (IG 0))
        (b (T0 0) (T1 0) (TX 0) (TZ 0) (TC 0) (IG 0))
        (c (T0 0) (T1 0) (TX 0) (TZ 0) (TC 0) (IG 0))
        (out (T0 1) (T1 4) (TX 0) (TZ 0) (TC 2) (IG 0))
        (x (T0 0) (T1 0) (TX 0) (TZ 0) (TC 0) (IG 0))
        (y (T0 0) (T1 0) (TX 0) (TZ 0) (TC 0) (IG 0))
        (z (T0 0) (T1 0) (TX 0) (TZ 0) (TC 0) (IG 0))
      )
    )
  )
)
