(SAIFILE
  (SAIFVERSION "2.0")
  (DIRECTION "backward")
  (DESIGN )
  (PROGRAM_NAME "trace2power")
  (DIVIDER / )
  (TIMESCALE 1ns)
  (DURATION 2)
  (INSTANCE peak_power
    (INSTANCE counter0
      (NET
        (clk (T0 1) (T1 1) (TX 0) (TZ 0) (TC 2) (IG 0))
        (cnt[0] (T0 1) (T1 1) (TX 0) (TZ 0) (TC 1) (IG 0))
        (cnt[1] (T0 0) (T1 2) (TX 0) (TZ 0) (TC 0) (IG 0))
        (cnt[2] (T0 2) (T1 0) (TX 0) (TZ 0) (TC 0) (IG 0))
        (cnt[3] (T0 2) (T1 0) (TX 0) (TZ 0) (TC 0) (IG 0))
        (cnt[4] (T0 2) (T1 0) (TX 0) (TZ 0) (TC 0) (IG 0))
        (pulse16 (T0 2) (T1 0) (TX 0) (TZ 0) (TC 0) (IG 0))
        (pulse2 (T0 1) (T1 1) (TX 0) (TZ 0) (TC 1) (IG 0))
        (pulse4 (T0 1) (T1 1) (TX 0) (TZ 0) (TC 1) (IG 0))
        (pulse8 (T0 2) (T1 0) (TX 0) (TZ 0) (TC 0) (IG 0))
      )
    )
  )
)
